*Heading
** Job name: a1000 Model name: Model-1
** Generated by: Abaqus/CAE 6.12-1
*Preprint, echo=NO, model=NO, history=NO, contact=NO
**
** PARTS
**
*Part, name=Part-1
*Node
      1,          40.,           5.
      2,           0.,           5.
      3,           0.,           0.
      4,          10.,           0.
      5,          40.,           0.
      6,          40.,          40.
      7,           0.,          40.
      8,         39.5,           5.
      9,          39.,           5.
     10,         38.5,           5.
     11,          38.,           5.
     12,         37.5,           5.
     13,          37.,           5.
     14,         36.5,           5.
     15,          36.,           5.
     16,         35.5,           5.
     17,          35.,           5.
     18,         34.5,           5.
     19,          34.,           5.
     20,         33.5,           5.
** ... 26689 like lines cut
*Element, type=CPE3
  1, 19825, 19578, 19304
  2, 17254, 16836, 16870
  3,  2271, 20309, 21097
  4, 15259, 14821,  3110
  5, 23942,  8553,  3025
  6, 23693,  3039,  3389
  7, 23876,  2031,  2030
  8, 23881,  1855,  1509
  9, 10836,  2529,  2530
 10,  1857,  1856,  2032
 11, 23616,  1835,  1836
 12,  1209,  1208,  1367
 13,  1239,  1238,  1399
 14,  1247,  1246,  1407
 15, 23945,  1419,  1418
 16, 23674,  1759,  1760
 17,  1603,  1750,  1751
 18,  7310,  7289,  6715
 19, 19015, 19321,  2323
 20, 23645,  1632,  1723
** ... 459 like lines cut
*Element, type=CPE4R
  462,  1039, 23521,     8,     9
  463,   867, 23521,  1109,   866
  464,   999,  1039,     9,    10
  465,  1038,  1113,   997,   996
  466,    12,    13,   996,   997
  467,   995,    13,    14,   994
  468,    16,    17,   991,   992
  469,    18,    19,   989,   990
  470,    19,    20,   988,   989
  471,    20,    21,   987,   988
  472,    24,    25,   982,   983
  473,    25,    26,   981,   982
  474,    26,    27,   980,   981
  475,    27,    28,   979,   980
  476,   976,    30,    31,   975
  477,   975,    31,    32,   974
  478,   974,    32,    33,   973
  479,   972,    34,    35,   971
  480,   971,    35,    36,   970
  481,    38,    39,   967,   968
** ... 26031 like lines cut
*Nset, nset=Set-1, generate
     1,  26709,      1
*Elset, elset=Set-1, generate
     1,  26530,      1
*Nset, nset=Set-27, generate
     1,  26709,      1
*Elset, elset=Set-27, generate
     1,  26530,      1
** Section: Section-linela
*Solid Section, elset=Set-27, material=Material-linela
,
*End Part
**  
**
** ASSEMBLY
**
*Assembly, name=Assembly
**  
*Instance, name=Part-1-1, part=Part-1
*End Instance
**  
*Nset, nset=Set-2, instance=Part-1-1
 5,
*Nset, nset=Set-3, instance=Part-1-1
   4,   5, 288, 289, 290, 291, 292, 293, 294, 295, 296, 297, 298, 299, 300, 301
 302, 303, 304, 305, 306, 307, 308, 309, 310, 311, 312, 313, 314, 315, 316, 317
 318, 319, 320, 321, 322, 323, 324, 325, 326, 327, 328, 329, 330, 331, 332, 333
 334, 335, 336, 337, 338, 339, 340, 341, 342, 343, 344, 345, 346, 347, 348, 349
 350, 351, 352, 353, 354, 355, 356, 357, 358, 359, 360, 361, 362, 363, 364, 365
 366, 367, 368, 369, 370, 371, 372, 373, 374, 375, 376, 377, 378, 379, 380, 381
 382, 383, 384, 385, 386, 387, 388, 389, 390, 391, 392, 393, 394, 395, 396, 397
 398, 399, 400, 401, 402, 403, 404, 405, 406, 407, 408, 409, 410, 411, 412, 413
 414, 415, 416, 417, 418, 419, 420, 421, 422, 423, 424, 425, 426, 427, 428, 429
 430, 431, 432, 433, 434, 435, 436, 437, 438, 439, 440, 441, 442, 443, 444, 445
 446, 447, 448, 449, 450, 451, 452, 453, 454, 455, 456, 457, 458, 459, 460, 461
 462, 463, 464, 465, 466, 467, 468, 469, 470, 471, 472, 473, 474, 475, 476, 477
 478, 479, 480, 481, 482, 483, 484, 485, 486, 487, 488, 489, 490, 491, 492, 493
 494, 495, 496, 497, 498, 499, 500, 501, 502, 503, 504, 505, 506, 507, 508, 509
 510, 511, 512, 513, 514, 515, 516, 517, 518, 519, 520, 521, 522, 523, 524, 525
 526, 527, 528, 529, 530, 531, 532, 533, 534, 535, 536, 537, 538, 539, 540, 541
 542, 543, 544, 545, 546, 547, 548, 549, 550, 551, 552, 553, 554, 555, 556, 557
 558, 559, 560, 561, 562, 563, 564, 565, 566, 567, 568, 569, 570, 571, 572, 573
 574, 575, 576, 577, 578, 579, 580, 581, 582, 583, 584, 585, 586, 587, 588, 589
 590, 591, 592, 593, 594, 595, 596, 597, 598, 599, 600, 601, 602, 603, 604, 605
** ... 16 like lines cut
*Elset, elset=Set-3, instance=Part-1-1
  734,  735,  736,  737,  738,  739,  775,  846,  847,  864,  900,  901,  903,  904,  935,  952
  964,  974,  984,  985,  994,  998,  999, 1001, 1003, 1005, 1030, 1031, 1032, 1033, 1034, 1052
 1083, 1085, 1086, 1117, 1118, 1134, 1148, 1159, 1170, 1174, 1178, 1182, 1183, 1211, 1230, 1231
 1248, 1249, 1301, 1302, 1350, 1364, 1374, 1375, 1385, 1390, 1397, 1398, 1399, 1426, 1427, 1448
 1500, 1501, 1531, 1543, 1556, 1566, 1567, 1580, 1581, 1584, 1587, 1588, 1613, 1614, 1615, 1634
 1652, 1666, 1719, 1721, 1722, 1733, 1734, 2358, 2854, 3667, 3690, 3771, 3831, 3852, 3903, 3922
 4126, 4156, 4187, 4215, 4281, 4282, 4310, 4366, 4449, 4450, 4465, 4490, 4491, 4503, 4526, 4527
 4541, 4562, 4563, 4576, 4743, 4744, 4771, 4803, 4828, 4886, 4909, 4937, 4957, 4980, 5025, 5026
 5032, 5033, 5058, 5059, 5060, 5061, 5062, 5095, 5097, 5129, 5130, 5132, 5152, 5156, 5303, 5304
 5330, 5345, 5346, 5358, 5361, 5362, 5365, 5509, 5510, 5511, 5512, 5513, 5514, 5515, 5516, 5517
 5518, 5519, 5520, 5521, 5522, 5523, 5524, 5525, 5526, 5527, 5528, 5529, 5530, 5531, 5532, 5533
 5534, 5535, 5536, 5537, 5538, 5539, 5540, 5541, 5543, 5544, 5545, 5546, 5547, 5548, 5549, 5550
 5551, 5552, 5553, 5554, 5555, 5556, 5557, 5558, 5559, 5560, 5561, 5562, 5563, 5564, 5565, 5566
 5567, 5568, 5569, 5571, 5572, 5573, 5574, 5575, 5576, 5577, 5578, 5579, 5580, 5581, 5582, 5583
 5584, 5585, 5586, 5587, 5588, 5589, 5590, 5591, 5592, 5593, 5595, 5596, 5597, 5598, 5599, 5600
 5601, 5602, 5603, 5604, 5605, 5606, 5607, 5608, 5609, 5610, 5611, 5612, 5613, 5614, 5615, 5617
 5618, 5619, 5620, 5621, 5622, 5623, 5624, 5625, 5626, 5627, 5628, 5629, 5630, 5631, 5632, 5633
 5635, 5636, 5637, 5638, 5639, 5640, 5641, 5642, 5643, 5644, 5645, 5646, 5647, 5648, 5649, 5651
 5652, 5653, 5654, 5655, 5656, 5657, 5658, 5659, 5660, 5661, 5662, 5663, 5664, 5665, 5666, 5667
 5668, 5669, 5670, 5671, 5672, 5673, 5674, 5675, 5676, 5678, 5679, 5680, 5681, 5682, 5683, 5684
** ... 16 like lines cut
*Elset, elset=_Surf-1_S1, internal, instance=Part-1-1
 25752, 26491, 26492, 26494, 26497
*Elset, elset=_Surf-1_S4, internal, instance=Part-1-1
 25770, 26479
*Elset, elset=_Surf-1_S3, internal, instance=Part-1-1
 26475,
*Elset, elset=_Surf-1_S2, internal, instance=Part-1-1
 26490, 26493
*Surface, type=ELEMENT, name=Surf-1
_Surf-1_S1, S1
_Surf-1_S4, S4
_Surf-1_S2, S2
_Surf-1_S3, S3
*End Assembly
** 
** MATERIALS
** 
*Material, name=Material-linela
*Elastic
1000., 0.3
** ----------------------------------------------------------------
** 
** STEP: Step-1
** 
*Step, name=Step-1
*Static
1., 1., 1e-05, 1.
** 
** BOUNDARY CONDITIONS
** 
** Name: BC-1 Type: Displacement/Rotation
*Boundary
Set-3, 2, 2
** Name: BC-2 Type: Displacement/Rotation
*Boundary
Set-2, 1, 1
Set-2, 2, 2
** 
** LOADS
** 
** Name: Load-1   Type: Surface traction
*Dsload, constant resultant=YES
Surf-1, TRVEC, 5., 0., 1., 0.
** 
** OUTPUT REQUESTS
** 
*Restart, write, frequency=0
** 
** FIELD OUTPUT: F-Output-1
** 
*Output, field
*Node Output
CF, RF, RM, RT, TF, U, UR, UT
V, VF, VR, VT
*Element Output, directions=YES
ALPHA, ALPHAN, BF, CENTMAG, CENTRIFMAG, CORIOMAG, CS11, CTSHR, E, EE, ELEDEN, ELEN, ENER, ER, ESF1, GRAV
HP, IE, LE, MISES, MISESMAX, MISESONLY, NE, NFORC, NFORCSO, P, PE, PEEQ, PEEQMAX, PEEQT, PEMAG, PEQC
PRESSONLY, PS, ROTAMAG, S, SALPHA, SE, SEE, SEP, SEPE, SF, SPE, SSAVG, THE, TRIAX, TRNOR, TRSHR
TSHR, VE, VEEQ, VS
*Contact Output
CDISP, CDISPETOS, CDSTRESS, CFORCE, CNAREA, CSTATUS, CSTRESS, CSTRESSETOS, PPRESS
** 
** HISTORY OUTPUT: H-Output-1
** 
*Output, history, variable=PRESELECT
*End Step
