*Heading
** Job name: a2996 Model name: Model-1
** Generated by: Abaqus/CAE 6.12-1
*Preprint, echo=NO, model=NO, history=NO, contact=NO
**
** PARTS
**
*Part, name=Part-1
*Node
      1,          40.,           5.
      2,           0.,           5.
      3,           0.,           0.
      4,   29.9599991,           0.
      5,          40.,           0.
      6,          40.,          40.
      7,           0.,          40.
      8,         39.5,           5.
      9,          39.,           5.
     10,         38.5,           5.
     11,          38.,           5.
     12,         37.5,           5.
     13,          37.,           5.
     14,         36.5,           5.
     15,          36.,           5.
     16,         35.5,           5.
     17,          35.,           5.
     18,         34.5,           5.
     19,          34.,           5.
     20,         33.5,           5.
** ... 26817 like lines cut
*Element, type=CPE3
  1,  2205,  2706,  2541
  2,  1821,  1822,  1533
  3,  1872,  2046,  1873
  4,  3153,  3152, 15645
  5, 24631, 15235,  3152
  6,  2939, 15240, 14343
  7, 10236, 24326, 24060
  8,  1252,  1772,  1412
  9, 17894, 17571,  2609
 10, 16321, 15921, 15917
 11, 20383, 20365, 19903
 12,  1646,  1645,  1993
 13, 23753, 23895,  1712
 14, 13338, 12833, 11825
 15,  2705,  2204,  2704
 16, 24198, 10254,  9690
 17, 24246,  1868,  1867
 18,  1205,  1204,  1365
 19, 10172,  3436, 10218
 20, 12894, 12400, 12869
** ... 489 like lines cut
*Element, type=CPE4R
  492,  1038, 23492,     8,     9
  493,   867, 23492,  1106,   866
  494,   998,  1038,     9,    10
  495,   996,   995,  1037,  1110
  496,    12,    13,   995,   996
  497,   994,    13,    14,   993
  498,    16,    17,   990,   991
  499,    18,    19,   988,   989
  500,    19,    20,   987,   988
  501,    20,    21,   986,   987
  502,    24,    25,   981,   982
  503,    25,    26,   980,   981
  504,    26,    27,   979,   980
  505,    27,    28,   978,   979
  506,   975,    30,    31,   974
  507,   974,    31,    32,   973
  508,   973,    32,    33,   972
  509,   971,    34,    35,   970
  510,   970,    35,    36,   969
  511,    38,    39,   966,   967
** ... 26144 like lines cut
*Nset, nset=Set-1, generate
     1,  26837,      1
*Elset, elset=Set-1, generate
     1,  26673,      1
*Nset, nset=Set-27, generate
     1,  26837,      1
*Elset, elset=Set-27, generate
     1,  26673,      1
** Section: Section-linela
*Solid Section, elset=Set-27, material=Material-linela
,
*End Part
**  
**
** ASSEMBLY
**
*Assembly, name=Assembly
**  
*Instance, name=Part-1-1, part=Part-1
*End Instance
**  
*Nset, nset=Set-2, instance=Part-1-1
 5,
*Nset, nset=Set-3, instance=Part-1-1
   4,   5, 666, 667, 668, 669, 670, 671, 672, 673, 674, 675, 676, 677, 678, 679
 680, 681, 682, 683, 684, 685, 686, 687, 688, 689, 690, 691, 692, 693, 694, 695
 696, 697, 698, 699, 700, 701, 702, 703, 704, 705, 706, 707, 708, 709, 710, 711
 712, 713, 714, 715, 716, 717, 718, 719, 720, 721, 722, 723, 724, 725, 726, 727
 728, 729, 730, 731, 732, 733, 734, 735, 736, 737, 738, 739, 740, 741, 742, 743
 744, 745, 746, 747, 748, 749, 750, 751, 752, 753, 754, 755, 756, 757, 758, 759
 760, 761, 762, 763, 764, 765, 766, 767, 768, 769, 770, 771, 772, 773, 774, 775
 776, 777, 778, 779, 780, 781, 782, 783, 784, 785, 786, 787, 788, 789, 790, 791
 792, 793, 794, 795, 796, 797, 798, 799, 800, 801, 802, 803, 804, 805, 806, 807
 808, 809, 810, 811, 812, 813, 814, 815, 816, 817, 818, 819, 820, 821, 822, 823
 824, 825, 826, 827, 828, 829, 830, 831, 832, 833, 834, 835, 836, 837, 838, 839
 840, 841, 842, 843, 844, 845, 846, 847, 848, 849, 850, 851, 852, 853
*Elset, elset=Set-3, instance=Part-1-1
 1485, 1519, 1520, 1521, 1522, 1554, 1567, 1582, 1593, 1601, 1605, 1613, 1615, 1640, 1641, 1642
 1643, 1661, 1712, 1714, 1719, 1723, 1731, 1732, 1733, 1734, 1737, 1738, 1743, 1744, 1745, 3891
 3892, 3914, 4215, 4216, 4381, 4563, 4564, 4578, 4842, 4843, 4978, 5131, 5132, 5133, 5134, 5135
 5388, 5397, 5843, 5844, 5845, 5846, 5848, 5849, 5850, 5851, 5852, 5853, 5854, 5855, 5856, 5857
 5858, 5859, 5860, 5861, 5862, 5863, 5864, 5865, 5866, 5867, 5868, 5869, 5870, 5871, 5873, 5874
 5875, 5876, 5877, 5878, 5879, 5880, 5881, 5882, 5883, 5884, 5885, 5886, 5887, 5888, 5890, 5891
 5892, 5893, 5894, 5895, 5896, 5897, 5898, 5899, 5900, 5901, 5903, 5904, 5905, 5906, 5907, 5908
 5909, 5910, 5911, 5912, 5913, 5914, 5915, 5916, 5917, 5918, 5920, 5921, 5922, 5923, 5924, 5926
 5927, 5928, 5929, 5930, 5932, 5933, 5934, 5935, 5936, 5937, 5938, 5939, 5940, 5942, 5943, 5944
 5946, 5947, 5948, 5949, 5950, 5952, 5953, 5955, 5956, 5957, 5958, 5959, 5960, 5961, 5962, 5963
 5964, 5965, 5966, 5967, 5968, 5970, 5971, 5972, 5973, 5976, 5977, 5978, 5979, 5980, 5981, 5982
 5983, 5984, 5985, 5986, 6019, 6117, 6245, 6280, 6404, 6445, 6592, 6596, 7843
*Elset, elset=_Surf-1_S1, internal, instance=Part-1-1
 25895, 26634, 26635, 26637, 26640
*Elset, elset=_Surf-1_S4, internal, instance=Part-1-1
 25913, 26622
*Elset, elset=_Surf-1_S3, internal, instance=Part-1-1
 26618,
*Elset, elset=_Surf-1_S2, internal, instance=Part-1-1
 26633, 26636
*Surface, type=ELEMENT, name=Surf-1
_Surf-1_S1, S1
_Surf-1_S4, S4
_Surf-1_S2, S2
_Surf-1_S3, S3
*End Assembly
** 
** MATERIALS
** 
*Material, name=Material-linela
*Elastic
1000., 0.3
** ----------------------------------------------------------------
** 
** STEP: Step-1
** 
*Step, name=Step-1
*Static
1., 1., 1e-05, 1.
** 
** BOUNDARY CONDITIONS
** 
** Name: BC-1 Type: Displacement/Rotation
*Boundary
Set-3, 2, 2
** Name: BC-2 Type: Displacement/Rotation
*Boundary
Set-2, 1, 1
Set-2, 2, 2
** 
** LOADS
** 
** Name: Load-1   Type: Surface traction
*Dsload, constant resultant=YES
Surf-1, TRVEC, 5., 0., 1., 0.
** 
** OUTPUT REQUESTS
** 
*Restart, write, frequency=0
** 
** FIELD OUTPUT: F-Output-1
** 
*Output, field
*Node Output
CF, RF, RM, RT, TF, U, UR, UT
V, VF, VR, VT
*Element Output, directions=YES
ALPHA, ALPHAN, BF, CENTMAG, CENTRIFMAG, CORIOMAG, CS11, CTSHR, E, EE, ELEDEN, ELEN, ENER, ER, ESF1, GRAV
HP, IE, LE, MISES, MISESMAX, MISESONLY, NE, NFORC, NFORCSO, P, PE, PEEQ, PEEQMAX, PEEQT, PEMAG, PEQC
PRESSONLY, PS, ROTAMAG, S, SALPHA, SE, SEE, SEP, SEPE, SF, SPE, SSAVG, THE, TRIAX, TRNOR, TRSHR
TSHR, VE, VEEQ, VS
*Contact Output
CDISP, CDISPETOS, CDSTRESS, CFORCE, CNAREA, CSTATUS, CSTRESS, CSTRESSETOS, PPRESS
** 
** HISTORY OUTPUT: H-Output-1
** 
*Output, history, variable=PRESELECT
*End Step
