*Heading
** Job name: a3000 Model name: Model-1
** Generated by: Abaqus/CAE 6.12-1
*Preprint, echo=NO, model=NO, history=NO, contact=NO
**
** PARTS
**
*Part, name=Part-1
*Node
      1,          40.,           5.
      2,           0.,           5.
      3,           0.,           0.
      4,          30.,           0.
      5,          40.,           0.
      6,          40.,          40.
      7,           0.,          40.
      8,         39.5,           5.
      9,          39.,           5.
     10,         38.5,           5.
     11,          38.,           5.
     12,         37.5,           5.
     13,          37.,           5.
     14,         36.5,           5.
     15,          36.,           5.
     16,         35.5,           5.
     17,          35.,           5.
     18,         34.5,           5.
     19,          34.,           5.
     20,         33.5,           5.
** ... 26995 like lines cut
*Element, type=CPE3
  1, 24400, 16967,  2562
  2, 23784,  1545,  1787
  3, 12850, 23998, 24049
  4, 25060, 17290, 16930
  5, 25967, 16018, 16403
  6, 22881, 22789, 22691
  7, 18906, 19741,  3791
  8,  1637,  1983,  1638
  9, 24781, 17699,  2836
 10, 14808,  2680,  2679
 11, 16909, 16546,  2842
 12, 23740,  7926,  3236
 13, 24245,  1856,  1855
 14,  1202,  1201,  1356
 15, 23951,  1530,  1529
 16, 24525, 24431, 16567
 17,  1210,  1209,  1364
 18,  1216,  1217, 23665
 19,  1231,  1230,  1387
 20, 19592, 19845,  2079
** ... 599 like lines cut
*Element, type=CPE4R
  602,  1037, 23518,     8,     9
  603,   998,  1037,     9,    10
  604,  1036,  1108,   996,   995
  605,    12,    13,   995,   996
  606,   994,    13,    14,   993
  607,    16,    17,   990,   991
  608,    18,    19,   988,   989
  609,    19,    20,   987,   988
  610,    20,    21,   986,   987
  611,    24,    25,   981,   982
  612,    25,    26,   980,   981
  613,    26,    27,   979,   980
  614,    27,    28,   978,   979
  615,   975,    30,    31,   974
  616,   974,    31,    32,   973
  617,   973,    32,    33,   972
  618,   971,    34,    35,   970
  619,   970,    35,    36,   969
  620,    38,    39,   966,   967
  621,    40,    41,   964,   965
** ... 26267 like lines cut
*Nset, nset=Set-1, generate
     1,  27015,      1
*Elset, elset=Set-1, generate
     1,  26906,      1
*Nset, nset=Set-27, generate
     1,  27015,      1
*Elset, elset=Set-27, generate
     1,  26906,      1
** Section: Section-linela
*Solid Section, elset=Set-27, material=Material-linela
,
*End Part
**  
**
** ASSEMBLY
**
*Assembly, name=Assembly
**  
*Instance, name=Part-1-1, part=Part-1
*End Instance
**  
*Nset, nset=Set-2, instance=Part-1-1
 5,
*Nset, nset=Set-3, instance=Part-1-1
   4,   5, 667, 668, 669, 670, 671, 672, 673, 674, 675, 676, 677, 678, 679, 680
 681, 682, 683, 684, 685, 686, 687, 688, 689, 690, 691, 692, 693, 694, 695, 696
 697, 698, 699, 700, 701, 702, 703, 704, 705, 706, 707, 708, 709, 710, 711, 712
 713, 714, 715, 716, 717, 718, 719, 720, 721, 722, 723, 724, 725, 726, 727, 728
 729, 730, 731, 732, 733, 734, 735, 736, 737, 738, 739, 740, 741, 742, 743, 744
 745, 746, 747, 748, 749, 750, 751, 752, 753, 754, 755, 756, 757, 758, 759, 760
 761, 762, 763, 764, 765, 766, 767, 768, 769, 770, 771, 772, 773, 774, 775, 776
 777, 778, 779, 780, 781, 782, 783, 784, 785, 786, 787, 788, 789, 790, 791, 792
 793, 794, 795, 796, 797, 798, 799, 800, 801, 802, 803, 804, 805, 806, 807, 808
 809, 810, 811, 812, 813, 814, 815, 816, 817, 818, 819, 820, 821, 822, 823, 824
 825, 826, 827, 828, 829, 830, 831, 832, 833, 834, 835, 836, 837, 838, 839, 840
 841, 842, 843, 844, 845, 846, 847, 848, 849, 850, 851, 852, 853
*Elset, elset=Set-3, instance=Part-1-1
 1455, 1456, 1458, 1459, 1491, 1503, 1504, 1517, 1528, 1529, 1538, 1597, 1598, 1614, 1615, 1633
 1670, 1671, 1672, 1700, 1715, 1728, 1729, 1736, 1744, 1750, 1758, 1760, 1784, 1786, 1802, 1814
 1815, 1820, 2822, 2826, 4083, 4354, 4496, 4689, 4690, 4704, 4938, 5085, 5244, 5246, 5247, 5447
 5448, 5462, 5907, 5908, 5909, 5910, 5911, 5912, 5913, 5914, 5915, 5916, 5917, 5918, 5919, 5920
 5921, 5922, 5923, 5924, 5925, 5926, 5927, 5928, 5929, 5930, 5931, 5933, 5934, 5935, 5936, 5937
 5938, 5939, 5940, 5941, 5942, 5943, 5944, 5945, 5946, 5947, 5948, 5949, 5951, 5952, 5953, 5954
 5955, 5956, 5957, 5958, 5959, 5960, 5961, 5962, 5964, 5965, 5966, 5967, 5968, 5969, 5970, 5971
 5972, 5973, 5974, 5975, 5976, 5977, 5978, 5979, 5980, 5982, 5983, 5984, 5985, 5986, 5987, 5989
 5990, 5991, 5992, 5993, 5994, 5995, 5996, 5997, 5998, 6000, 6001, 6002, 6003, 6005, 6006, 6007
 6008, 6009, 6010, 6011, 6012, 6014, 6015, 6017, 6018, 6019, 6020, 6021, 6022, 6024, 6025, 6026
 6027, 6028, 6029, 6030, 6032, 6033, 6034, 6035, 6037, 6038, 6039, 6040, 6041, 6042, 6043, 6044
 6045, 6046, 6047, 6048, 6079, 6176, 6305, 6337, 6465, 6483, 6507, 6654
*Elset, elset=_Surf-1_S1, internal, instance=Part-1-1
 26128, 26867, 26868, 26870, 26873
*Elset, elset=_Surf-1_S4, internal, instance=Part-1-1
 26146, 26855
*Elset, elset=_Surf-1_S3, internal, instance=Part-1-1
 26851,
*Elset, elset=_Surf-1_S2, internal, instance=Part-1-1
 26866, 26869
*Surface, type=ELEMENT, name=Surf-1
_Surf-1_S1, S1
_Surf-1_S4, S4
_Surf-1_S2, S2
_Surf-1_S3, S3
*End Assembly
** 
** MATERIALS
** 
*Material, name=Material-linela
*Elastic
1000., 0.3
** ----------------------------------------------------------------
** 
** STEP: Step-1
** 
*Step, name=Step-1
*Static
1., 1., 1e-05, 1.
** 
** BOUNDARY CONDITIONS
** 
** Name: BC-1 Type: Displacement/Rotation
*Boundary
Set-3, 2, 2
** Name: BC-2 Type: Displacement/Rotation
*Boundary
Set-2, 1, 1
Set-2, 2, 2
** 
** LOADS
** 
** Name: Load-1   Type: Surface traction
*Dsload, constant resultant=YES
Surf-1, TRVEC, 5., 0., 1., 0.
** 
** OUTPUT REQUESTS
** 
*Restart, write, frequency=0
** 
** FIELD OUTPUT: F-Output-1
** 
*Output, field
*Node Output
CF, RF, RM, RT, TF, U, UR, UT
V, VF, VR, VT
*Element Output, directions=YES
ALPHA, ALPHAN, BF, CENTMAG, CENTRIFMAG, CORIOMAG, CS11, CTSHR, E, EE, ELEDEN, ELEN, ENER, ER, ESF1, GRAV
HP, IE, LE, MISES, MISESMAX, MISESONLY, NE, NFORC, NFORCSO, P, PE, PEEQ, PEEQMAX, PEEQT, PEMAG, PEQC
PRESSONLY, PS, ROTAMAG, S, SALPHA, SE, SEE, SEP, SEPE, SF, SPE, SSAVG, THE, TRIAX, TRNOR, TRSHR
TSHR, VE, VEEQ, VS
*Contact Output
CDISP, CDISPETOS, CDSTRESS, CFORCE, CNAREA, CSTATUS, CSTRESS, CSTRESSETOS, PPRESS
** 
** HISTORY OUTPUT: H-Output-1
** 
*Output, history, variable=PRESELECT
*End Step
